examples/IEEE-118-8500/cosim_118_8500/Current_8500.csv
# Current_8500.csv run at 2000-09-01 12:00:00 PDT on 9883 links
link_name,currA_real,currA_imag,currB_real,currB_imag,currC_real,currC_imag
FEEDER_REG,468.921467,-358.596524,-528.708713,-205.374377,20.702608,527.588911
VREG2,161.408891,-249.561383,-261.786849,-1.258177,83.607607,196.063447
VREG3,236.020283,-259.761030,-336.146683,-58.998619,40.033377,231.356356
VREG4,81.061644,-36.745668,-91.974080,-51.833722,-7.463658,89.744059
HVMV_Sub,52.098879,-8.001665,-28.691708,-38.277276,-23.407171,46.278941
T21396254A,0.483517,-0.622219,0.000000,0.000000,0.000000,0.000000
T5321859B,0.000000,0.000000,-1.473601,-0.003790,0.000000,0.000000
T5391741B,0.000000,0.000000,-1.531705,-0.151809,0.000000,0.000000
T5293672A,0.443161,-0.683326,0.000000,0.000000,0.000000,0.000000
T21474711C,0.000000,0.000000,0.000000,0.000000,0.310448,0.842453
T5260488A,1.293152,-1.578352,0.000000,0.000000,0.000000,0.000000
T5391758B,0.000000,0.000000,-0.905527,-0.092410,0.000000,0.000000
T228091193A,1.737330,-2.186325,0.000000,0.000000,0.000000,0.000000
T228091193B,0.000000,0.000000,-3.035536,-0.421127,0.000000,0.000000
T228091193C,0.000000,0.000000,0.000000,0.000000,1.120464,2.879212
T5302862C,0.000000,0.000000,0.000000,0.000000,0.340930,0.844397
T21236413B,0.000000,0.000000,-3.006744,-0.016717,0.000000,0.000000
T5302468A,0.329759,-0.433732,0.000000,0.000000,0.000000,0.000000
T5294787A,0.292079,-0.450563,0.000000,0.000000,0.000000,0.000000
T5157715B,0.000000,0.000000,-0.560936,-0.115526,0.000000,0.000000
T5355768B,0.000000,0.000000,-1.465253,-0.004779,0.000000,0.000000
T5138562A,0.806450,-1.043367,0.000000,0.000000,0.000000,0.000000
T5355934A,0.288524,-0.449842,0.000000,0.000000,0.000000,0.000000
T5293483A,0.816690,-1.074445,0.000000,0.000000,0.000000,0.000000
T21399762A,0.434858,-0.675693,0.000000,0.000000,0.000000,0.000000
T5138650C,0.000000,0.000000,0.000000,0.000000,0.227935,0.558953
T5323242B,0.000000,0.000000,-1.513479,-0.005204,0.000000,0.000000
T28127090C,0.000000,0.000000,0.000000,0.000000,0.563756,1.403637
T5138769A,0.323878,-0.426435,0.000000,0.000000,0.000000,0.000000
T5338896A,0.441876,-0.665536,0.000000,0.000000,0.000000,0.000000
T5355586B,0.000000,0.000000,-1.481104,-0.001438,0.000000,0.000000
T5293471A,0.818998,-1.076640,0.000000,0.000000,0.000000,0.000000
T5293471B,0.000000,0.000000,-1.488635,-0.158342,0.000000,0.000000
T5293471C,0.000000,0.000000,0.000000,0.000000,0.579878,1.404545
T5338954A,0.728079,-1.116051,0.000000,0.000000,0.000000,0.000000
T21459629C,0.000000,0.000000,0.000000,0.000000,1.882194,4.287120
T5260562A,1.302056,-1.624312,0.000000,0.000000,0.000000,0.000000
T21393486C,0.000000,0.000000,0.000000,0.000000,0.319513,0.844406
T5293518B,0.000000,0.000000,-1.478222,-0.159217,0.000000,0.000000
T226195194C,0.000000,0.000000,0.000000,0.000000,0.448273,1.444391
T21383494B,0.000000,0.000000,-1.476588,-0.051419,0.000000,0.000000
T5251863C,0.000000,0.000000,0.000000,0.000000,0.448185,1.444290
T5293645A,0.732538,-1.129002,0.000000,0.000000,0.000000,0.000000
T21482431A,0.517386,-0.625846,0.000000,0.000000,0.000000,0.000000
T5293480A,0.489891,-0.641175,0.000000,0.000000,0.000000,0.000000
T21469911A,0.858090,-1.167646,0.000000,0.000000,0.000000,0.000000
T5355432C,0.000000,0.000000,0.000000,0.000000,0.890746,2.102420
T5323285B,0.000000,0.000000,-1.476279,-0.051488,0.000000,0.000000
T226192954C,0.000000,0.000000,0.000000,0.000000,0.351550,0.835068
T5207292C,0.000000,0.000000,0.000000,0.000000,0.319209,0.844552
T5337672B,0.000000,0.000000,-0.893268,-0.004628,0.000000,0.000000
T5442373C,0.000000,0.000000,0.000000,0.000000,0.554557,1.386087
T21470405A,1.102985,-1.683769,0.000000,0.000000,0.000000,0.000000
T5218474A,1.772627,-1.911674,0.000000,0.000000,0.000000,0.000000
T5218472A,0.881277,-0.951468,0.000000,0.000000,0.000000,0.000000
T5356014A,0.288677,-0.450314,0.000000,0.000000,0.000000,0.000000
T5260528C,0.000000,0.000000,0.000000,0.000000,0.506514,1.411530
T5355933A,0.288525,-0.449844,0.000000,0.000000,0.000000,0.000000
T5138649A,0.805997,-1.046101,0.000000,0.000000,0.000000,0.000000
T5391978C,0.000000,0.000000,0.000000,0.000000,0.596775,1.423627
T5138642A,0.484607,-0.632123,0.000000,0.000000,0.000000,0.000000
T21149420A,0.731976,-1.111986,0.000000,0.000000,0.000000,0.000000
T21382992A,0.760853,-1.132768,0.000000,0.000000,0.000000,0.000000
T5338958C,0.000000,0.000000,0.000000,0.000000,0.604064,1.405678
T5355585B,0.000000,0.000000,-0.885474,-0.000956,0.000000,0.000000
T5338900A,0.439381,-0.664077,0.000000,0.000000,0.000000,0.000000
T5323389B,0.000000,0.000000,-1.518429,-0.003945,0.000000,0.000000
T28127253A,1.080507,-1.643457,0.000000,0.000000,0.000000,0.000000
T21397067A,0.434138,-0.672350,0.000000,0.000000,0.000000,0.000000
T5260520B,0.000000,0.000000,-0.291177,-0.045711,0.000000,0.000000
T5323250B,0.000000,0.000000,-0.901617,-0.004038,0.000000,0.000000
T5337659C,0.000000,0.000000,0.000000,0.000000,0.609152,1.405509
T28118903B,0.000000,0.000000,-1.487836,0.000405,0.000000,0.000000
T21398646B,0.000000,0.000000,-1.517143,-0.000757,0.000000,0.000000
T5293656B,0.000000,0.000000,-0.870765,-0.016001,0.000000,0.000000
T5338910C,0.000000,0.000000,0.000000,0.000000,0.583120,1.383147
T28129923C,0.000000,0.000000,0.000000,0.000000,0.272537,0.846617
T5337716A,0.445627,-0.690715,0.000000,0.000000,0.000000,0.000000
T5337698B,0.000000,0.000000,-0.600626,-0.001342,0.000000,0.000000
T2224386946A,0.727384,-1.116920,0.000000,0.000000,0.000000,0.000000
T5330121B,0.000000,0.000000,-0.567168,-0.073628,0.000000,0.000000
T5323252B,0.000000,0.000000,-0.902337,-0.003853,0.000000,0.000000
T5441331C,0.000000,0.000000,0.000000,0.000000,0.586124,1.390202
T5260474A,0.862659,-1.048815,0.000000,0.000000,0.000000,0.000000
T5355376B,0.000000,0.000000,-0.587949,-0.000811,0.000000,0.000000
T5338944C,0.000000,0.000000,0.000000,0.000000,0.234380,0.556512
T5260640C,0.000000,0.000000,0.000000,0.000000,0.295389,0.844743
T5274997C,0.000000,0.000000,0.000000,0.000000,0.548087,1.432611
T5138372C,0.000000,0.000000,0.000000,0.000000,0.225976,0.560933
T226308721A,1.742405,-2.279398,0.000000,0.000000,0.000000,0.000000
T21380616A,0.736135,-1.114443,0.000000,0.000000,0.000000,0.000000
T226193170A,0.729892,-1.110990,0.000000,0.000000,0.000000,0.000000
T5293666C,0.000000,0.000000,0.000000,0.000000,0.237678,0.566732
T5338994B,0.000000,0.000000,-2.945446,-0.110628,0.000000,0.000000
T228665517C,0.000000,0.000000,0.000000,0.000000,0.878616,2.086783
T5260647A,0.346402,-0.411217,0.000000,0.000000,0.000000,0.000000
T226115278A,0.460932,-0.642436,0.000000,0.000000,0.000000,0.000000
T5338977A,0.303068,-0.446586,0.000000,0.000000,0.000000,0.000000
T5338977B,0.000000,0.000000,-0.580734,-0.020242,0.000000,0.000000
T5338977C,0.000000,0.000000,0.000000,0.000000,0.225766,0.551164
T5321876A,0.442236,-0.694430,0.000000,0.000000,0.000000,0.000000
T5275001C,0.000000,0.000000,0.000000,0.000000,0.328962,0.858199
T227411650C,0.000000,0.000000,0.000000,0.000000,0.442138,1.434842
T21396699B,0.000000,0.000000,-1.507021,-0.006844,0.000000,0.000000
T5302412A,1.243762,-1.632996,0.000000,0.000000,0.000000,0.000000
T2223661373A,0.737113,-1.166412,0.000000,0.000000,0.000000,0.000000
T226881700A,0.764854,-1.109594,0.000000,0.000000,0.000000,0.000000
T5355777B,0.000000,0.000000,-1.465534,-0.004778,0.000000,0.000000
T5337671A,0.440118,-0.668765,0.000000,0.000000,0.000000,0.000000
T5339018A,0.459036,-0.662492,0.000000,0.000000,0.000000,0.000000
T21398676A,0.443199,-0.683915,0.000000,0.000000,0.000000,0.000000
T5138469C,0.000000,0.000000,0.000000,0.000000,0.338755,0.841424
T5138373C,0.000000,0.000000,0.000000,0.000000,0.338698,0.841371
T5391995A,0.732511,-1.148280,0.000000,0.000000,0.000000,0.000000
T225533423C,0.000000,0.000000,0.000000,0.000000,0.270198,0.866646
T5260568C,0.000000,0.000000,0.000000,0.000000,0.309870,0.842616
T5138754B,0.000000,0.000000,-2.209949,-0.242391,0.000000,0.000000
T5260552A,1.743799,-2.114439,0.000000,0.000000,0.000000,0.000000
T5338968C,0.000000,0.000000,0.000000,0.000000,0.861598,2.072078
T5247061A,0.863310,-1.088363,0.000000,0.000000,0.000000,0.000000
T5391746B,0.000000,0.000000,-0.609310,-0.060300,0.000000,0.000000
T5338941C,0.000000,0.000000,0.000000,0.000000,0.352575,0.837599
T5338982B,0.000000,0.000000,-1.457583,-0.055569,0.000000,0.000000
T5339008B,0.000000,0.000000,-0.881424,-0.031174,0.000000,0.000000
T21391094A,0.483918,-0.627034,0.000000,0.000000,0.000000,0.000000
T5138581A,0.805130,-1.040174,0.000000,0.000000,0.000000,0.000000
T5338979B,0.000000,0.000000,-0.579320,-0.024007,0.000000,0.000000
T226308720A,2.630918,-3.435570,0.000000,0.000000,0.000000,0.000000
T5355595B,0.000000,0.000000,-0.591959,0.000213,0.000000,0.000000
T2224387113A,1.094123,-1.679289,0.000000,0.000000,0.000000,0.000000
T21397005A,1.090596,-1.704905,0.000000,0.000000,0.000000,0.000000
T5274985C,0.000000,0.000000,0.000000,0.000000,0.325411,0.853215
T5321836A,0.439376,-0.685870,0.000000,0.000000,0.000000,0.000000
T225673440A,0.736938,-1.165243,0.000000,0.000000,0.000000,0.000000
T5337641C,0.000000,0.000000,0.000000,0.000000,0.333161,0.864052
T5293659C,0.000000,0.000000,0.000000,0.000000,0.356370,0.850118
T5339011B,0.000000,0.000000,-0.880687,-0.031342,0.000000,0.000000
T5218473A,0.881323,-0.951554,0.000000,0.000000,0.000000,0.000000
T28121587A,0.434828,-0.674423,0.000000,0.000000,0.000000,0.000000
T2224230689C,0.000000,0.000000,0.000000,0.000000,1.774210,4.219719
T227734175B,0.000000,0.000000,-1.473572,-0.052081,0.000000,0.000000
T5337694B,0.000000,0.000000,-0.899873,-0.002902,0.000000,0.000000
T21357515A,0.725687,-1.108381,0.000000,0.000000,0.000000,0.000000
T28127390C,0.000000,0.000000,0.000000,0.000000,0.340875,0.844321
T21387929C,0.000000,0.000000,0.000000,0.000000,0.332669,0.863366
T5355605B,0.000000,0.000000,-1.487267,0.000252,0.000000,0.000000
T5260630B,0.000000,0.000000,-0.856146,-0.157578,0.000000,0.000000
T5337660C,0.000000,0.000000,0.000000,0.000000,0.609314,1.405716
T5293663C,0.000000,0.000000,0.000000,0.000000,0.356379,0.850136
T5138719A,0.809134,-1.064149,0.000000,0.000000,0.000000,0.000000
T5251858C,0.000000,0.000000,0.000000,0.000000,0.449717,1.446122
T5302804C,0.000000,0.000000,0.000000,0.000000,0.856026,2.124098
T5356062B,0.000000,0.000000,-1.466326,-0.004536,0.000000,0.000000
T5346639C,0.000000,0.000000,0.000000,0.000000,0.263193,0.856590
T5302508C,0.000000,0.000000,0.000000,0.000000,0.579222,1.404581
T5321881A,0.736706,-1.163695,0.000000,0.000000,0.000000,0.000000
T5355433C,0.000000,0.000000,0.000000,0.000000,1.189492,2.810719
T21398402A,0.443823,-0.685304,0.000000,0.000000,0.000000,0.000000
T21398563A,0.742322,-1.157003,0.000000,0.000000,0.000000,0.000000
T21386771B,0.000000,0.000000,-0.887428,-0.007351,0.000000,0.000000
T5260648A,0.872110,-1.013428,0.000000,0.000000,0.000000,0.000000
T5293490C,0.000000,0.000000,0.000000,0.000000,0.580427,1.405267
T225901711A,0.442277,-0.694571,0.000000,0.000000,0.000000,0.000000
T227902981A,1.102374,-1.727298,0.000000,0.000000,0.000000,0.000000
T5321853B,0.000000,0.000000,-1.473056,-0.003626,0.000000,0.000000
T2224237653A,1.085893,-1.680325,0.000000,0.000000,0.000000,0.000000
T2224386592A,0.727153,-1.115512,0.000000,0.000000,0.000000,0.000000
T5391990A,0.439885,-0.685943,0.000000,0.000000,0.000000,0.000000
T226881057B,0.000000,0.000000,-0.907851,-0.000428,0.000000,0.000000
T225533531A,0.728324,-1.139161,0.000000,0.000000,0.000000,0.000000
T5247056A,0.517735,-0.649114,0.000000,0.000000,0.000000,0.000000
T227905262A,0.736160,-1.161756,0.000000,0.000000,0.000000,0.000000
T21469960B,0.000000,0.000000,-1.510347,-0.006020,0.000000,0.000000
T5260511C,0.000000,0.000000,0.000000,0.000000,0.321230,0.847426
T5138346C,0.000000,0.000000,0.000000,0.000000,0.338529,0.841133
T225806974A,0.290686,-0.454919,0.000000,0.000000,0.000000,0.000000
T5355944B,0.000000,0.000000,-1.454608,-0.012043,0.000000,0.000000
T5138569A,0.483596,-0.622401,0.000000,0.000000,0.000000,0.000000
T5337625C,0.000000,0.000000,0.000000,0.000000,0.553232,1.439832
T5321874A,0.735440,-1.159492,0.000000,0.000000,0.000000,0.000000
T5337713C,0.000000,0.000000,0.000000,0.000000,0.359769,0.839768
T5391757B,0.000000,0.000000,-0.603081,-0.061282,0.000000,0.000000
T5338998B,0.000000,0.000000,-1.465310,-0.053932,0.000000,0.000000
T5356064B,0.000000,0.000000,-1.470165,-0.003681,0.000000,0.000000
T5323275B,0.000000,0.000000,-1.510435,-0.005997,0.000000,0.000000
T21389237A,0.856790,-1.052301,0.000000,0.000000,0.000000,0.000000
T2224230615C,0.000000,0.000000,0.000000,0.000000,1.176635,2.794273
T5260463B,0.000000,0.000000,-0.843358,-0.173696,0.000000,0.000000
T5302402A,0.495928,-0.648077,0.000000,0.000000,0.000000,0.000000
T5355599B,0.000000,0.000000,-1.487810,0.000393,0.000000,0.000000
T21393412B,0.000000,0.000000,-1.421777,-0.185522,0.000000,0.000000
T5356807A,0.859973,-1.169717,0.000000,0.000000,0.000000,0.000000
T5293660B,0.000000,0.000000,-1.454516,-0.027278,0.000000,0.000000
T227731863A,1.095031,-1.677287,0.000000,0.000000,0.000000,0.000000
T227760021A,1.744641,-2.278568,0.000000,0.000000,0.000000,0.000000
T227760021B,0.000000,0.000000,-3.029478,-0.330845,0.000000,0.000000
T227760021C,0.000000,0.000000,0.000000,0.000000,1.058569,2.830883
T5391980A,0.443139,-0.683995,0.000000,0.000000,0.000000,0.000000
T5338984A,0.764513,-1.109248,0.000000,0.000000,0.000000,0.000000
T5337702B,0.000000,0.000000,-1.513462,-0.002369,0.000000,0.000000
T5337696B,0.000000,0.000000,-0.902427,-0.002256,0.000000,0.000000
T225577437C,0.000000,0.000000,0.000000,0.000000,0.565613,1.406158
T5337676A,0.733471,-1.120713,0.000000,0.000000,0.000000,0.000000
T5323418A,0.736101,-1.114311,0.000000,0.000000,0.000000,0.000000
T226192936B,0.000000,0.000000,-1.451351,-0.025409,0.000000,0.000000
T5337706B,0.000000,0.000000,-1.515832,-0.001332,0.000000,0.000000
T5339010B,0.000000,0.000000,-2.950624,-0.109495,0.000000,0.000000
T5391987A,0.738236,-1.145114,0.000000,0.000000,0.000000,0.000000
T5310569A,0.739871,-1.149509,0.000000,0.000000,0.000000,0.000000
T225869139A,0.442483,-0.695902,0.000000,0.000000,0.000000,0.000000
T5337708B,0.000000,0.000000,-0.908382,-0.000193,0.000000,0.000000
T226308719B,0.000000,0.000000,-4.572650,-0.500160,0.000000,0.000000
T5337630C,0.000000,0.000000,0.000000,0.000000,0.331914,0.862313
T5138655A,0.483176,-0.622049,0.000000,0.000000,0.000000,0.000000
T226194826A,0.861441,-1.141260,0.000000,0.000000,0.000000,0.000000
T5356808A,1.294050,-1.758693,0.000000,0.000000,0.000000,0.000000
T5355593B,0.000000,0.000000,-0.888840,-0.000128,0.000000,0.000000
T5356787C,0.000000,0.000000,0.000000,0.000000,0.451514,1.448974
T5321845B,0.000000,0.000000,-1.504798,-0.007380,0.000000,0.000000
T5337720A,0.445492,-0.690313,0.000000,0.000000,0.000000,0.000000
T5337631C,0.000000,0.000000,0.000000,0.000000,0.221276,0.574625
T21486213B,0.000000,0.000000,-0.907249,-0.000693,0.000000,0.000000
T28127319B,0.000000,0.000000,-1.473753,-0.003809,0.000000,0.000000
T5337666B,0.000000,0.000000,-1.481924,-0.012705,0.000000,0.000000
T5356809A,0.860015,-1.152848,0.000000,0.000000,0.000000,0.000000
T5323397B,0.000000,0.000000,-1.515237,-0.004768,0.000000,0.000000
T5337692B,0.000000,0.000000,-0.597729,-0.002081,0.000000,0.000000
T5339042B,0.000000,0.000000,-1.425127,-0.115308,0.000000,0.000000
T5260501B,0.000000,0.000000,-1.465585,-0.225577,0.000000,0.000000
T2224230754C,0.000000,0.000000,0.000000,0.000000,0.881047,2.090045
T5138563A,0.806430,-1.043283,0.000000,0.000000,0.000000,0.000000
T5338936C,0.000000,0.000000,0.000000,0.000000,0.583437,1.385477
T5247185B,0.000000,0.000000,-0.889626,-0.128575,0.000000,0.000000
T21482181A,0.866480,-1.133405,0.000000,0.000000,0.000000,0.000000
T5323280B,0.000000,0.000000,-1.514093,-0.005062,0.000000,0.000000
T5138264B,0.000000,0.000000,-1.523948,-0.203461,0.000000,0.000000
T5337679A,0.440317,-0.669348,0.000000,0.000000,0.000000,0.000000
T21357984C,0.000000,0.000000,0.000000,0.000000,0.560983,1.380547
T5260553C,0.000000,0.000000,0.000000,0.000000,0.302150,0.844118
T5293523A,0.815484,-1.072710,0.000000,0.000000,0.000000,0.000000
T5302507B,0.000000,0.000000,-1.502297,-0.156326,0.000000,0.000000
T2224387019A,0.727436,-1.117240,0.000000,0.000000,0.000000,0.000000
T5355431C,0.000000,0.000000,0.000000,0.000000,0.890883,2.102599
T5138404C,0.000000,0.000000,0.000000,0.000000,0.563746,1.403628
T5138574A,0.805392,-1.040788,0.000000,0.000000,0.000000,0.000000
T5138466C,0.000000,0.000000,0.000000,0.000000,0.565417,1.405893
T21397721A,0.439830,-0.685856,0.000000,0.000000,0.000000,0.000000
T5337684A,0.732403,-1.118950,0.000000,0.000000,0.000000,0.000000
T5339051C,0.000000,0.000000,0.000000,0.000000,0.555923,1.385269
T5337623C,0.000000,0.000000,0.000000,0.000000,0.330190,0.859914
T226308725B,0.000000,0.000000,-4.575062,-0.498953,0.000000,0.000000
T5356804A,0.859757,-1.169175,0.000000,0.000000,0.000000,0.000000
T5355604B,0.000000,0.000000,-0.890616,0.000409,0.000000,0.000000
T21459660C,0.000000,0.000000,0.000000,0.000000,1.886195,4.289761
T5337636C,0.000000,0.000000,0.000000,0.000000,0.837022,2.174601
T5260505C,0.000000,0.000000,0.000000,0.000000,0.525203,1.411336
T5325245B,0.000000,0.000000,-0.603787,-0.001572,0.000000,0.000000
T21385192C,0.000000,0.000000,0.000000,0.000000,0.332355,0.862927
T5260496B,0.000000,0.000000,-0.583619,-0.089647,0.000000,0.000000
T21399220C,0.000000,0.000000,0.000000,0.000000,0.353633,0.840955
T5337655C,0.000000,0.000000,0.000000,0.000000,0.361206,0.840120
T5330122B,0.000000,0.000000,-0.852410,-0.110782,0.000000,0.000000
T28148060C,0.000000,0.000000,0.000000,0.000000,0.328233,0.857168
T5302674A,0.816971,-1.075100,0.000000,0.000000,0.000000,0.000000
T5355601B,0.000000,0.000000,-0.890675,0.000425,0.000000,0.000000
T225533703C,0.000000,0.000000,0.000000,0.000000,0.608813,1.405358
T5356814C,0.000000,0.000000,0.000000,0.000000,0.532743,1.403886
T226196648A,0.741866,-1.155614,0.000000,0.000000,0.000000,0.000000
T5321861C,0.000000,0.000000,0.000000,0.000000,0.358784,0.842044
T5355840B,0.000000,0.000000,-1.457021,-0.010250,0.000000,0.000000
T21243817A,0.519912,-0.622508,0.000000,0.000000,0.000000,0.000000
T5260589B,0.000000,0.000000,-0.892993,-0.107013,0.000000,0.000000
T5338961C,0.000000,0.000000,0.000000,0.000000,0.604464,1.406196
T5337723A,0.444582,-0.687576,0.000000,0.000000,0.000000,0.000000
T5138573A,0.805542,-1.041151,0.000000,0.000000,0.000000,0.000000
T5321888C,0.000000,0.000000,0.000000,0.000000,0.602229,1.410925
T28148580B,0.000000,0.000000,-1.498374,-0.006413,0.000000,0.000000
T28126875B,0.000000,0.000000,-1.504645,-0.007446,0.000000,0.000000
T2224192013A,0.439302,-0.685640,0.000000,0.000000,0.000000,0.000000
T5260532C,0.000000,0.000000,0.000000,0.000000,0.303358,0.844636
T21389831A,0.513961,-0.628114,0.000000,0.000000,0.000000,0.000000
T21396331B,0.000000,0.000000,-1.466595,-0.161085,0.000000,0.000000
T227732939B,0.000000,0.000000,-2.277046,-0.004109,0.000000,0.000000
T5321856B,0.000000,0.000000,-0.882506,-0.001887,0.000000,0.000000
T5260625C,0.000000,0.000000,0.000000,0.000000,0.283676,0.846278
T5338950B,0.000000,0.000000,-1.455716,-0.023494,0.000000,0.000000
T226194419C,0.000000,0.000000,0.000000,0.000000,0.516597,1.408227
T5275247B,0.000000,0.000000,-1.421879,-0.185519,0.000000,0.000000
T5260518C,0.000000,0.000000,0.000000,0.000000,0.506409,1.411377
T5138259C,0.000000,0.000000,0.000000,0.000000,0.333579,0.836724
T5338926A,0.434439,-0.660987,0.000000,0.000000,0.000000,0.000000
T5321855B,0.000000,0.000000,-0.882420,-0.001924,0.000000,0.000000
T5356800A,0.859105,-1.167537,0.000000,0.000000,0.000000,0.000000
T5339047A,0.766341,-1.087612,0.000000,0.000000,0.000000,0.000000
T5321894C,0.000000,0.000000,0.000000,0.000000,0.602504,1.411183
T5337627C,0.000000,0.000000,0.000000,0.000000,0.553638,1.440398
T5355358B,0.000000,0.000000,-0.588016,-0.000793,0.000000,0.000000
T22112371533C,0.000000,0.000000,0.000000,0.000000,0.564871,1.405115
T5323274B,0.000000,0.000000,-0.902006,-0.003939,0.000000,0.000000
T21396015A,0.813611,-1.070251,0.000000,0.000000,0.000000,0.000000
T2224387074A,0.727467,-1.117430,0.000000,0.000000,0.000000,0.000000
T5323237B,0.000000,0.000000,-0.907002,-0.002650,0.000000,0.000000
T5338949B,0.000000,0.000000,-0.870728,-0.014298,0.000000,0.000000
T5356015A,0.723869,-1.127948,0.000000,0.000000,0.000000,0.000000
T5138718C,0.000000,0.000000,0.000000,0.000000,0.578861,1.399920
T5338959C,0.000000,0.000000,0.000000,0.000000,0.604368,1.406072
T5157718B,0.000000,0.000000,-1.408018,-0.290411,0.000000,0.000000
T5321884C,0.000000,0.000000,0.000000,0.000000,0.902952,2.120923
T5207286C,0.000000,0.000000,0.000000,0.000000,0.214485,0.563212
T5323263A,0.735949,-1.113865,0.000000,0.000000,0.000000,0.000000
T21399707A,0.724385,-1.131658,0.000000,0.000000,0.000000,0.000000
T226191772C,0.000000,0.000000,0.000000,0.000000,0.352902,0.833884
T5293667A,0.443166,-0.683620,0.000000,0.000000,0.000000,0.000000
T5293424C,0.000000,0.000000,0.000000,0.000000,0.871324,2.114110
T5337709B,0.000000,0.000000,-0.908558,-0.000115,0.000000,0.000000
T5323391B,0.000000,0.000000,-2.283362,-0.006929,0.000000,0.000000
T28147899C,0.000000,0.000000,0.000000,0.000000,0.314031,0.841445
T226308717A,1.742230,-2.277004,0.000000,0.000000,0.000000,0.000000
T28147018B,0.000000,0.000000,-0.880811,-0.095843,0.000000,0.000000
T21396815C,0.000000,0.000000,0.000000,0.000000,0.349809,0.829403
T5247184C,0.000000,0.000000,0.000000,0.000000,0.541328,1.416110
T5339043C,0.000000,0.000000,0.000000,0.000000,0.544813,1.389954
T5302405A,0.495928,-0.648077,0.000000,0.000000,0.000000,0.000000
T227917127C,0.000000,0.000000,0.000000,0.000000,1.246565,2.837214
T5356788C,0.000000,0.000000,0.000000,0.000000,0.180311,0.577782
T5321886C,0.000000,0.000000,0.000000,0.000000,0.601597,1.410332
T5293657B,0.000000,0.000000,-0.870958,-0.016057,0.000000,0.000000
T5138237B,0.000000,0.000000,-0.850421,-0.111035,0.000000,0.000000
T5310560A,0.444384,-0.687007,0.000000,0.000000,0.000000,0.000000
T5260598A,1.298732,-1.690267,0.000000,0.000000,0.000000,0.000000
T5302373B,0.000000,0.000000,-0.903323,-0.092748,0.000000,0.000000
T5260476A,0.517238,-0.625625,0.000000,0.000000,0.000000,0.000000
T21389092B,0.000000,0.000000,-1.464999,-0.225415,0.000000,0.000000
T5356063C,0.000000,0.000000,0.000000,0.000000,0.355400,0.836756
T2223878647B,0.000000,0.000000,-0.907543,-0.002512,0.000000,0.000000
T5354851B,0.000000,0.000000,-1.487789,0.000388,0.000000,0.000000
T5338997B,0.000000,0.000000,-2.945050,-0.110654,0.000000,0.000000
T226193422B,0.000000,0.000000,-0.908330,-0.002311,0.000000,0.000000
T5391745B,0.000000,0.000000,-1.529499,-0.152141,0.000000,0.000000
T5251855C,0.000000,0.000000,0.000000,0.000000,0.539275,1.394069
T5339006B,0.000000,0.000000,-1.473610,-0.052085,0.000000,0.000000
T5355437C,0.000000,0.000000,0.000000,0.000000,0.592120,1.397013
T5391752B,0.000000,0.000000,-1.522411,-0.153246,0.000000,0.000000
T5338920A,0.436921,-0.662892,0.000000,0.000000,0.000000,0.000000
T5338925A,0.435177,-0.661613,0.000000,0.000000,0.000000,0.000000
T5138685A,0.484882,-0.633751,0.000000,0.000000,0.000000,0.000000
T5338992B,0.000000,0.000000,-0.877435,-0.032073,0.000000,0.000000
T5260513C,0.000000,0.000000,0.000000,0.000000,0.321256,0.847463
T5302809C,0.000000,0.000000,0.000000,0.000000,0.340389,0.843662
T5323388B,0.000000,0.000000,-1.518363,-0.003962,0.000000,0.000000
T5138265A,0.864700,-1.095708,0.000000,0.000000,0.000000,0.000000
T5338970A,0.715938,-1.077084,0.000000,0.000000,0.000000,0.000000
T228445756C,0.000000,0.000000,0.000000,0.000000,0.338252,0.840732
T5138771A,0.487306,-0.637887,0.000000,0.000000,0.000000,0.000000
T21471907A,0.730253,-1.117744,0.000000,0.000000,0.000000,0.000000
T22112168880C,0.000000,0.000000,0.000000,0.000000,1.174996,2.790683
T5302469A,0.496323,-0.648996,0.000000,0.000000,0.000000,0.000000
T5323286B,0.000000,0.000000,-0.884094,-0.030576,0.000000,0.000000
T5302735A,0.810825,-1.066558,0.000000,0.000000,0.000000,0.000000
T5260529C,0.000000,0.000000,0.000000,0.000000,0.202250,0.562883
T5338933B,0.000000,0.000000,-2.178305,-0.027218,0.000000,0.000000
T5247059A,0.863255,-1.088236,0.000000,0.000000,0.000000,0.000000
T226024307B,0.000000,0.000000,-0.883402,-0.095448,0.000000,0.000000
T5294788A,1.090400,-1.704285,0.000000,0.000000,0.000000,0.000000
T5321890C,0.000000,0.000000,0.000000,0.000000,0.905355,2.123532
T5337678A,0.733513,-1.120839,0.000000,0.000000,0.000000,0.000000
T5328364C,0.000000,0.000000,0.000000,0.000000,0.540282,1.401711
T5138374C,0.000000,0.000000,0.000000,0.000000,0.565283,1.405739
T5355603B,0.000000,0.000000,-2.236371,-0.000526,0.000000,0.000000
T5338999B,0.000000,0.000000,-0.583910,-0.021223,0.000000,0.000000
T5260586B,0.000000,0.000000,-2.242480,-0.270312,0.000000,0.000000
T5338995B,0.000000,0.000000,-0.583077,-0.021403,0.000000,0.000000
T5260484A,0.515885,-0.626548,0.000000,0.000000,0.000000,0.000000
T227100746A,0.443054,-0.682802,0.000000,0.000000,0.000000,0.000000
T5356794C,0.000000,0.000000,0.000000,0.000000,0.539147,1.393891
T5351020C,0.000000,0.000000,0.000000,0.000000,0.538674,1.419331
T5338935B,0.000000,0.000000,-0.865276,-0.012475,0.000000,0.000000
T226193078A,0.761728,-1.138210,0.000000,0.000000,0.000000,0.000000
T21031694B,0.000000,0.000000,-2.239069,-0.015013,0.000000,0.000000
T226193892B,0.000000,0.000000,-0.878160,-0.031905,0.000000,0.000000
T21399619C,0.000000,0.000000,0.000000,0.000000,0.580538,1.405413
T5321887C,0.000000,0.000000,0.000000,0.000000,0.602286,1.410979
T225534325A,0.726832,-1.109320,0.000000,0.000000,0.000000,0.000000
T228219458B,0.000000,0.000000,-1.508199,-0.006568,0.000000,0.000000
T5260543C,0.000000,0.000000,0.000000,0.000000,0.501488,1.411022
T5337722A,0.741697,-1.155107,0.000000,0.000000,0.000000,0.000000
T5138379C,0.000000,0.000000,0.000000,0.000000,0.563800,1.403712
T5260480C,0.000000,0.000000,0.000000,0.000000,0.517335,1.411419
T21389307C,0.000000,0.000000,0.000000,0.000000,0.510720,1.411338
T21399752A,0.724456,-1.132113,0.000000,0.000000,0.000000,0.000000
T21400185A,0.827390,-1.087636,0.000000,0.000000,0.000000,0.000000
T5338927A,0.722613,-1.105820,0.000000,0.000000,0.000000,0.000000
T5338922B,0.000000,0.000000,-1.462082,-0.017930,0.000000,0.000000
T21382813A,1.294068,-1.758776,0.000000,0.000000,0.000000,0.000000
T2224230651C,0.000000,0.000000,0.000000,0.000000,1.773762,4.219414
T5138380C,0.000000,0.000000,0.000000,0.000000,0.225375,0.560113
T21031684A,0.731476,-1.118769,0.000000,0.000000,0.000000,0.000000
T5338921A,0.290089,-0.442867,0.000000,0.000000,0.000000,0.000000
T5337724A,0.444750,-0.688078,0.000000,0.000000,0.000000,0.000000
T28150292A,0.523014,-0.604823,0.000000,0.000000,0.000000,0.000000
T21249674B,0.000000,0.000000,-1.465890,-0.225493,0.000000,0.000000
T5138567A,1.212383,-1.566985,0.000000,0.000000,0.000000,0.000000
T5247060A,0.344174,-0.434290,0.000000,0.000000,0.000000,0.000000
T5391737B,0.000000,0.000000,-1.531560,-0.151828,0.000000,0.000000
T226194280B,0.000000,0.000000,-0.852225,-0.110805,0.000000,0.000000
T5251856C,0.000000,0.000000,0.000000,0.000000,0.269823,0.866046
T5274903C,0.000000,0.000000,0.000000,0.000000,0.322630,0.849301
T226193345A,0.441148,-0.664756,0.000000,0.000000,0.000000,0.000000
T5391765B,0.000000,0.000000,-1.530769,-0.151948,0.000000,0.000000
T5323403B,0.000000,0.000000,-0.905813,-0.002958,0.000000,0.000000
T21209868A,0.738145,-1.145641,0.000000,0.000000,0.000000,0.000000
T5260573C,0.000000,0.000000,0.000000,0.000000,0.310457,0.842467
T5302858C,0.000000,0.000000,0.000000,0.000000,0.569285,1.411197
T225940756B,0.000000,0.000000,-2.277752,-0.003803,0.000000,0.000000
T5392036B,0.000000,0.000000,-1.518145,-0.000317,0.000000,0.000000
T5260500B,0.000000,0.000000,-0.583864,-0.089623,0.000000,0.000000
T28128007C,0.000000,0.000000,0.000000,0.000000,0.549373,1.434399
T5138342C,0.000000,0.000000,0.000000,0.000000,0.566148,1.406912
T5391736B,0.000000,0.000000,-0.916970,-0.090627,0.000000,0.000000
T225571871B,0.000000,0.000000,-0.891129,0.000584,0.000000,0.000000
T5338893A,0.736000,-1.114016,0.000000,0.000000,0.000000,0.000000
T21373784A,1.486099,-2.302696,0.000000,0.000000,0.000000,0.000000
T21455388C,0.000000,0.000000,0.000000,0.000000,0.905280,2.123461
T226193662A,0.805758,-1.041646,0.000000,0.000000,0.000000,0.000000
T5355943C,0.000000,0.000000,0.000000,0.000000,0.587165,1.392165
T5260627A,1.311451,-1.522840,0.000000,0.000000,0.000000,0.000000
T5260650A,0.872084,-1.013374,0.000000,0.000000,0.000000,0.000000
T5339019A,0.459029,-0.662475,0.000000,0.000000,0.000000,0.000000
T5337728A,0.445513,-0.690375,0.000000,0.000000,0.000000,0.000000
T5391744B,0.000000,0.000000,-1.530244,-0.152028,0.000000,0.000000
T5293487B,0.000000,0.000000,-1.486733,-0.158499,0.000000,0.000000
T227447984C,0.000000,0.000000,0.000000,0.000000,1.886905,4.290229
T5302374B,0.000000,0.000000,-0.903342,-0.092745,0.000000,0.000000
T227921427A,1.745327,-2.279694,0.000000,0.000000,0.000000,0.000000
T227921427B,0.000000,0.000000,-3.030807,-0.330684,0.000000,0.000000
T227921427C,0.000000,0.000000,0.000000,0.000000,1.059140,2.831698
T5310561A,0.740215,-1.150626,0.000000,0.000000,0.000000,0.000000
T5338966C,0.000000,0.000000,0.000000,0.000000,0.576259,1.379601
T28127681B,0.000000,0.000000,-1.473826,-0.003504,0.000000,0.000000
T21474614C,0.000000,0.000000,0.000000,0.000000,0.609105,1.405465
T5260503B,0.000000,0.000000,-0.877683,-0.134830,0.000000,0.000000
T226159329A,0.737107,-1.166367,0.000000,0.000000,0.000000,0.000000
T2224386617A,1.093769,-1.677160,0.000000,0.000000,0.000000,0.000000
T5337619A,0.866757,-1.133870,0.000000,0.000000,0.000000,0.000000
T5337619B,0.000000,0.000000,-1.507297,-0.163268,0.000000,0.000000
T5337619C,0.000000,0.000000,0.000000,0.000000,0.527615,1.407503
T5338985A,0.456316,-0.671587,0.000000,0.000000,0.000000,0.000000
T5302509C,0.000000,0.000000,0.000000,0.000000,0.346886,0.840454
T227100753A,0.738019,-1.143552,0.000000,0.000000,0.000000,0.000000
T5355375A,0.731645,-1.145515,0.000000,0.000000,0.000000,0.000000
T5293681A,0.724971,-1.134034,0.000000,0.000000,0.000000,0.000000
T5338957C,0.000000,0.000000,0.000000,0.000000,0.240985,0.560264
T5275007C,0.000000,0.000000,0.000000,0.000000,0.325403,0.853203
T21399112C,0.000000,0.000000,0.000000,0.000000,0.589969,1.403632
T21380156B,0.000000,0.000000,-0.877101,-0.032140,0.000000,0.000000
T5321840B,0.000000,0.000000,-0.585785,-0.001253,0.000000,0.000000
T28120183C,0.000000,0.000000,0.000000,0.000000,0.591725,1.395570
T5302732A,0.488160,-0.638973,0.000000,0.000000,0.000000,0.000000
T5260487A,0.515725,-0.626747,0.000000,0.000000,0.000000,0.000000
T5323279B,0.000000,0.000000,-0.906206,-0.002862,0.000000,0.000000
T5260542A,0.866724,-1.042848,0.000000,0.000000,0.000000,0.000000
T226311345B,0.000000,0.000000,-2.218781,-0.240962,0.000000,0.000000
T21459651C,0.000000,0.000000,0.000000,0.000000,1.883472,4.287964
T5351019C,0.000000,0.000000,0.000000,0.000000,0.321439,0.847618
T5391749B,0.000000,0.000000,-1.527642,-0.152432,0.000000,0.000000
T5321159A,0.442332,-0.694927,0.000000,0.000000,0.000000,0.000000
T5260515A,0.864322,-1.045316,0.000000,0.000000,0.000000,0.000000
T5355606B,0.000000,0.000000,-0.890532,0.000387,0.000000,0.000000
T5321891C,0.000000,0.000000,0.000000,0.000000,0.602111,1.410814
T21399826A,0.724209,-1.130854,0.000000,0.000000,0.000000,0.000000
T5260458B,0.000000,0.000000,-0.560754,-0.115536,0.000000,0.000000
T22112168874C,0.000000,0.000000,0.000000,0.000000,1.174447,2.790314
T5337634C,0.000000,0.000000,0.000000,0.000000,0.555875,1.443531
T21386065C,0.000000,0.000000,0.000000,0.000000,0.518408,1.407923
T226192890C,0.000000,0.000000,0.000000,0.000000,0.909450,2.117153
T225498968B,0.000000,0.000000,-0.906032,-0.002902,0.000000,0.000000
T5391986A,0.738226,-1.145084,0.000000,0.000000,0.000000,0.000000
T5138645B,0.000000,0.000000,-0.870090,-0.100533,0.000000,0.000000
T5337693B,0.000000,0.000000,-0.899026,-0.003120,0.000000,0.000000
T5323236B,0.000000,0.000000,-1.515023,-0.004801,0.000000,0.000000
T226197070A,0.861243,-1.142887,0.000000,0.000000,0.000000,0.000000
T2224237384A,1.085750,-1.679443,0.000000,0.000000,0.000000,0.000000
T5391755B,0.000000,0.000000,-1.516694,-0.154123,0.000000,0.000000
T5338986A,0.760317,-1.125002,0.000000,0.000000,0.000000,0.000000
T5293423B,0.000000,0.000000,-0.897271,-0.093729,0.000000,0.000000
T5260475A,1.297386,-1.576150,0.000000,0.000000,0.000000,0.000000
T5338894A,0.293472,-0.444595,0.000000,0.000000,0.000000,0.000000
T5138560A,0.806467,-1.043435,0.000000,0.000000,0.000000,0.000000
T5260473A,1.297541,-1.576485,0.000000,0.000000,0.000000,0.000000
T21197413C,0.000000,0.000000,0.000000,0.000000,1.807708,4.329553
T5294843A,0.732222,-1.147338,0.000000,0.000000,0.000000,0.000000
T5247036C,0.000000,0.000000,0.000000,0.000000,0.221832,0.569593
T5355843A,0.288799,-0.451435,0.000000,0.000000,0.000000,0.000000
T5391751B,0.000000,0.000000,-1.527013,-0.152529,0.000000,0.000000
T5302812C,0.000000,0.000000,0.000000,0.000000,0.567234,1.408416
T226308731A,1.742522,-2.281007,0.000000,0.000000,0.000000,0.000000
T21396867A,0.725321,-1.134801,0.000000,0.000000,0.000000,0.000000
T5356811A,0.860026,-1.152871,0.000000,0.000000,0.000000,0.000000
T5302811C,0.000000,0.000000,0.000000,0.000000,0.340140,0.843328
T5294845A,0.439629,-0.685197,0.000000,0.000000,0.000000,0.000000
T2224237380A,1.085688,-1.679062,0.000000,0.000000,0.000000,0.000000
T21386877A,0.527324,-0.577459,0.000000,0.000000,0.000000,0.000000
T5138586C,0.000000,0.000000,0.000000,0.000000,0.338008,0.839434
T5247122B,0.000000,0.000000,-0.885141,-0.095188,0.000000,0.000000
T5323400B,0.000000,0.000000,-0.907570,-0.002508,0.000000,0.000000
T21397029A,0.725055,-1.134316,0.000000,0.000000,0.000000,0.000000
T5356791C,0.000000,0.000000,0.000000,0.000000,0.678453,2.180446
T5337646B,0.000000,0.000000,-1.475612,-0.015593,0.000000,0.000000
T5138716C,0.000000,0.000000,0.000000,0.000000,0.578928,1.400231
T5339004B,0.000000,0.000000,-1.477303,-0.051251,0.000000,0.000000
T5355602B,0.000000,0.000000,-0.890413,0.000356,0.000000,0.000000
T5337653B,0.000000,0.000000,-2.212615,-0.027243,0.000000,0.000000
T5323233B,0.000000,0.000000,-0.907018,-0.002637,0.000000,0.000000
T28120126A,1.485820,-2.299034,0.000000,0.000000,0.000000,0.000000
T28120126B,0.000000,0.000000,-2.923832,-0.056926,0.000000,0.000000
T28120126C,0.000000,0.000000,0.000000,0.000000,1.195457,2.860084
T5223658A,0.175442,-0.186755,0.000000,0.000000,0.000000,0.000000
T5138652C,0.000000,0.000000,0.000000,0.000000,0.855755,2.110476
T227678342C,0.000000,0.000000,0.000000,0.000000,0.338235,0.840715
T21249647B,0.000000,0.000000,-1.465883,-0.225494,0.000000,0.000000
T5337700B,0.000000,0.000000,-1.512255,-0.002896,0.000000,0.000000
T5356790C,0.000000,0.000000,0.000000,0.000000,0.180276,0.577742
T5302392A,0.495493,-0.647088,0.000000,0.000000,0.000000,0.000000
T2224237391A,0.721924,-1.117648,0.000000,0.000000,0.000000,0.000000
T5138470C,0.000000,0.000000,0.000000,0.000000,0.225849,0.560743
T5260581C,0.000000,0.000000,0.000000,0.000000,0.522092,1.406987
T226191951B,0.000000,0.000000,-1.531595,-0.151823,0.000000,0.000000
T5392037B,0.000000,0.000000,-1.518201,-0.000292,0.000000,0.000000
T5138797B,0.000000,0.000000,-2.212385,-0.330964,0.000000,0.000000
T5251857C,0.000000,0.000000,0.000000,0.000000,0.269752,0.865932
T5293644A,0.732537,-1.128948,0.000000,0.000000,0.000000,0.000000
T21396606C,0.000000,0.000000,0.000000,0.000000,0.564920,1.405164
T21395720C,0.000000,0.000000,0.000000,0.000000,0.345559,0.837286
T5338897A,0.441775,-0.665230,0.000000,0.000000,0.000000,0.000000
T5355935A,0.434435,-0.673235,0.000000,0.000000,0.000000,0.000000
T5274988C,0.000000,0.000000,0.000000,0.000000,0.325363,0.853149
T5323282B,0.000000,0.000000,-2.221256,-0.077968,0.000000,0.000000
T226109079A,1.106127,-1.742252,0.000000,0.000000,0.000000,0.000000
T5207287B,0.000000,0.000000,-1.470809,-0.219570,0.000000,0.000000
T5302510C,0.000000,0.000000,0.000000,0.000000,0.346899,0.840473
T2224387053A,1.094134,-1.679355,0.000000,0.000000,0.000000,0.000000
T5260631A,0.522601,-0.606843,0.000000,0.000000,0.000000,0.000000
T5355618B,0.000000,0.000000,-1.483312,-0.000896,0.000000,0.000000
T5260575B,0.000000,0.000000,-0.891599,-0.109153,0.000000,0.000000
T5350993C,0.000000,0.000000,0.000000,0.000000,0.326123,0.854209
T5260481C,0.000000,0.000000,0.000000,0.000000,0.518914,1.411408
T5260641B,0.000000,0.000000,-2.180718,-0.358455,0.000000,0.000000
T5337650A,0.438144,-0.667340,0.000000,0.000000,0.000000,0.000000
T5355780B,0.000000,0.000000,-1.468486,-0.004207,0.000000,0.000000
T5275002C,0.000000,0.000000,0.000000,0.000000,0.328971,0.858208
T21452406B,0.000000,0.000000,-1.472217,-0.003606,0.000000,0.000000
T21399326C,0.000000,0.000000,0.000000,0.000000,0.597157,1.424223
T5338964C,0.000000,0.000000,0.000000,0.000000,0.909799,2.117480
T28119958B,0.000000,0.000000,-0.905261,-0.003106,0.000000,0.000000
T21381118B,0.000000,0.000000,-0.877646,-0.032023,0.000000,0.000000
T5337673A,0.733280,-1.120143,0.000000,0.000000,0.000000,0.000000
T2224387138A,1.094132,-1.679346,0.000000,0.000000,0.000000,0.000000
T5323243B,0.000000,0.000000,-0.905446,-0.003053,0.000000,0.000000
T5138564A,0.806382,-1.043091,0.000000,0.000000,0.000000,0.000000
T223400157C,0.000000,0.000000,0.000000,0.000000,0.785289,2.117875
T227989724B,0.000000,0.000000,-1.475863,-0.002630,0.000000,0.000000
T5355592B,0.000000,0.000000,-1.484606,-0.000504,0.000000,0.000000
T5138565A,0.806297,-1.042891,0.000000,0.000000,0.000000,0.000000
T5138720A,0.808357,-1.063036,0.000000,0.000000,0.000000,0.000000
T5338913B,0.000000,0.000000,-1.474785,-0.015010,0.000000,0.000000
T21470326A,0.435252,-0.677197,0.000000,0.000000,0.000000,0.000000
T5355600B,0.000000,0.000000,-1.487560,0.000328,0.000000,0.000000
T226308728A,1.301840,-1.704896,0.000000,0.000000,0.000000,0.000000
T5323265B,0.000000,0.000000,-1.499981,-0.008644,0.000000,0.000000
T5391750B,0.000000,0.000000,-1.527703,-0.152422,0.000000,0.000000
T5260494B,0.000000,0.000000,-2.203039,-0.340131,0.000000,0.000000
T5138770A,0.323878,-0.426434,0.000000,0.000000,0.000000,0.000000
T5302637A,0.445673,-0.690849,0.000000,0.000000,0.000000,0.000000
T5302367B,0.000000,0.000000,-0.904880,-0.092509,0.000000,0.000000
T5391739B,0.000000,0.000000,-1.531311,-0.151870,0.000000,0.000000
T28120855A,0.344434,-0.435792,0.000000,0.000000,0.000000,0.000000
T2224237713A,1.085905,-1.680399,0.000000,0.000000,0.000000,0.000000
T5323241B,0.000000,0.000000,-0.907099,-0.002625,0.000000,0.000000
T5138679A,0.484834,-0.633636,0.000000,0.000000,0.000000,0.000000
T5302813C,0.000000,0.000000,0.000000,0.000000,0.339696,0.842731
T226193745B,0.000000,0.000000,-1.477140,-0.014914,0.000000,0.000000
T228314460C,0.000000,0.000000,0.000000,0.000000,0.442055,1.434747
T5391977A,0.738157,-1.145573,0.000000,0.000000,0.000000,0.000000
T5321854B,0.000000,0.000000,-0.882387,-0.001939,0.000000,0.000000
T5356789C,0.000000,0.000000,0.000000,0.000000,0.270401,0.866960
T5338973A,1.145920,-1.711082,0.000000,0.000000,0.000000,0.000000
T226193838C,0.000000,0.000000,0.000000,0.000000,0.560945,1.380541
T5293652A,0.440759,-0.676780,0.000000,0.000000,0.000000,0.000000
T5293652B,0.000000,0.000000,-2.184997,-0.040820,0.000000,0.000000
T5293652C,0.000000,0.000000,0.000000,0.000000,0.354822,0.845407
T5338978C,0.000000,0.000000,0.000000,0.000000,0.562858,1.382421
T5337703B,0.000000,0.000000,-0.906760,-0.000909,0.000000,0.000000
T21393570C,0.000000,0.000000,0.000000,0.000000,0.326225,0.854311
T0107693B,0.000000,0.000000,-1.461296,-0.229264,0.000000,0.000000
T28128464C,0.000000,0.000000,0.000000,0.000000,0.449337,1.445617
T5260572C,0.000000,0.000000,0.000000,0.000000,0.309863,0.842606
T5293519B,0.000000,0.000000,-0.295073,-0.031560,0.000000,0.000000
T21386157A,0.860882,-1.145924,0.000000,0.000000,0.000000,0.000000
T226163575B,0.000000,0.000000,-1.510239,-0.006048,0.000000,0.000000
T5302514A,0.329763,-0.433740,0.000000,0.000000,0.000000,0.000000
T5138343C,0.000000,0.000000,0.000000,0.000000,0.226013,0.560982
T226192762B,0.000000,0.000000,-0.294960,-0.031585,0.000000,0.000000
T5157717B,0.000000,0.000000,-0.843372,-0.173692,0.000000,0.000000
T5260602B,0.000000,0.000000,-0.899588,-0.097667,0.000000,0.000000
T5138416C,0.000000,0.000000,0.000000,0.000000,0.225302,0.560006
T21397771A,0.444179,-0.686369,0.000000,0.000000,0.000000,0.000000
T21399171C,0.000000,0.000000,0.000000,0.000000,0.353624,0.840947
T226191779C,0.000000,0.000000,0.000000,0.000000,0.589396,1.393716
T5207291C,0.000000,0.000000,0.000000,0.000000,0.533013,1.411442
T5302679A,0.490197,-0.641883,0.000000,0.000000,0.000000,0.000000
T5441854C,0.000000,0.000000,0.000000,0.000000,0.561006,1.380570
T228532641A,1.116764,-1.739429,0.000000,0.000000,0.000000,0.000000
T5138776C,0.000000,0.000000,0.000000,0.000000,0.340464,0.843763
T5302410A,0.826732,-1.086082,0.000000,0.000000,0.000000,0.000000
T5356010A,0.724227,-1.129047,0.000000,0.000000,0.000000,0.000000
T226192994A,0.286979,-0.438953,0.000000,0.000000,0.000000,0.000000
T5337629C,0.000000,0.000000,0.000000,0.000000,0.553406,1.440076
T5338967C,0.000000,0.000000,0.000000,0.000000,0.576293,1.379633
T21397304A,0.439834,-0.685882,0.000000,0.000000,0.000000,0.000000
T5310570A,0.738553,-1.145492,0.000000,0.000000,0.000000,0.000000
T5260637C,0.000000,0.000000,0.000000,0.000000,0.195485,0.563105
T5260577C,0.000000,0.000000,0.000000,0.000000,0.784139,2.117275
T5293658C,0.000000,0.000000,0.000000,0.000000,1.194801,2.858596
T21482279A,0.445494,-0.690326,0.000000,0.000000,0.000000,0.000000
T21015706A,0.438361,-0.667509,0.000000,0.000000,0.000000,0.000000
T5355607B,0.000000,0.000000,-1.487102,0.000209,0.000000,0.000000
T21483138A,0.434923,-0.676100,0.000000,0.000000,0.000000,0.000000
T226192492B,0.000000,0.000000,-0.585677,-0.001230,0.000000,0.000000
T5260591B,0.000000,0.000000,-1.491374,-0.179137,0.000000,0.000000
T5293486C,0.000000,0.000000,0.000000,0.000000,0.579566,1.403724
T5337690B,0.000000,0.000000,-1.498520,-0.006376,0.000000,0.000000
T5356805A,0.515958,-0.697600,0.000000,0.000000,0.000000,0.000000
T5338963C,0.000000,0.000000,0.000000,0.000000,0.362059,0.841486
T5294789A,0.724841,-1.133644,0.000000,0.000000,0.000000,0.000000
T226192684A,0.491712,-0.643078,0.000000,0.000000,0.000000,0.000000
T21475841A,0.862619,-1.048737,0.000000,0.000000,0.000000,0.000000
T5337642C,0.000000,0.000000,0.000000,0.000000,0.836704,2.174132
T21451973B,0.000000,0.000000,-0.882623,-0.001998,0.000000,0.000000
T2224386863A,1.093962,-1.678324,0.000000,0.000000,0.000000,0.000000
T5351021C,0.000000,0.000000,0.000000,0.000000,0.322615,0.849280
T21384099A,1.298247,-1.634908,0.000000,0.000000,0.000000,0.000000
T21384099B,0.000000,0.000000,-3.035473,-0.421127,0.000000,0.000000
T21384099C,0.000000,0.000000,0.000000,0.000000,0.838899,2.153264
T21397645A,0.738218,-1.145032,0.000000,0.000000,0.000000,0.000000
T227896008C,0.000000,0.000000,0.000000,0.000000,0.591806,1.395699
T2224386842A,1.093952,-1.678263,0.000000,0.000000,0.000000,0.000000
T5138752B,0.000000,0.000000,-0.879989,-0.095965,0.000000,0.000000
T5339012B,0.000000,0.000000,-1.469719,-0.052948,0.000000,0.000000
T5138412C,0.000000,0.000000,0.000000,0.000000,0.337807,0.840144
T2224237546A,1.085844,-1.680020,0.000000,0.000000,0.000000,0.000000
T5302861C,0.000000,0.000000,0.000000,0.000000,0.340918,0.844381
T21399630A,0.435225,-0.677212,0.000000,0.000000,0.000000,0.000000
T5337705B,0.000000,0.000000,-1.514893,-0.001743,0.000000,0.000000
T5323277B,0.000000,0.000000,-0.601452,-0.002177,0.000000,0.000000
T5337652B,0.000000,0.000000,-1.472864,-0.016872,0.000000,0.000000
T225571845B,0.000000,0.000000,-0.891164,0.000600,0.000000,0.000000
T5247162B,0.000000,0.000000,-0.886530,-0.094742,0.000000,0.000000
T5247126B,0.000000,0.000000,-0.588905,-0.063242,0.000000,0.000000
T5138561A,0.806464,-1.043423,0.000000,0.000000,0.000000,0.000000
T5293425A,0.821420,-1.079206,0.000000,0.000000,0.000000,0.000000
T5294786C,0.000000,0.000000,0.000000,0.000000,0.353839,0.841792
T5260491C,0.000000,0.000000,0.000000,0.000000,0.784627,2.124135
T5275248B,0.000000,0.000000,-0.566708,-0.073686,0.000000,0.000000
T5339044C,0.000000,0.000000,0.000000,0.000000,0.326275,0.831737
T5356810C,0.000000,0.000000,0.000000,0.000000,0.213244,0.559705
T2223703238C,0.000000,0.000000,0.000000,0.000000,0.233881,0.553811
T28044328C,0.000000,0.000000,0.000000,0.000000,0.338954,0.841721
T5293665C,0.000000,0.000000,0.000000,0.000000,0.595420,1.421503
T225533675B,0.000000,0.000000,-2.303829,-0.229270,0.000000,0.000000
T226191850A,0.724309,-1.129297,0.000000,0.000000,0.000000,0.000000
T5338899C,0.000000,0.000000,0.000000,0.000000,0.348963,0.827079
T5337628C,0.000000,0.000000,0.000000,0.000000,0.553635,1.440384
T5355767B,0.000000,0.000000,-2.203003,-0.008070,0.000000,0.000000
T0107636A,0.878825,-0.971181,0.000000,0.000000,0.000000,0.000000
T226308729B,0.000000,0.000000,-4.577117,-0.497923,0.000000,0.000000
T226195333C,0.000000,0.000000,0.000000,0.000000,0.162524,0.564625
T5337669A,0.731860,-1.118923,0.000000,0.000000,0.000000,0.000000
T5338942A,0.728021,-1.116202,0.000000,0.000000,0.000000,0.000000
T21474556A,1.756773,-2.022085,0.000000,0.000000,0.000000,0.000000
T225897846A,0.442492,-0.695965,0.000000,0.000000,0.000000,0.000000
T2224386889A,0.727333,-1.116609,0.000000,0.000000,0.000000,0.000000
T5294842A,0.731982,-1.146598,0.000000,0.000000,0.000000,0.000000
T5138647C,0.000000,0.000000,0.000000,0.000000,0.342723,0.838450
T5260464A,1.311519,-1.522978,0.000000,0.000000,0.000000,0.000000
T5337648B,0.000000,0.000000,-1.474075,-0.016300,0.000000,0.000000
T5275000C,0.000000,0.000000,0.000000,0.000000,0.328947,0.858177
T5337674A,0.733380,-1.120443,0.000000,0.000000,0.000000,0.000000
T5338932C,0.000000,0.000000,0.000000,0.000000,0.350910,0.831149
T5356793C,0.000000,0.000000,0.000000,0.000000,0.810709,2.097940
T228549643A,0.295504,-0.460377,0.000000,0.000000,0.000000,0.000000
T5302471A,1.244423,-1.634544,0.000000,0.000000,0.000000,0.000000
T225897943C,0.000000,0.000000,0.000000,0.000000,1.076808,2.849623
T5355590B,0.000000,0.000000,-0.888143,-0.000301,0.000000,0.000000
T5247164B,0.000000,0.000000,-0.589979,-0.062893,0.000000,0.000000
T5207288B,0.000000,0.000000,-0.586030,-0.087215,0.000000,0.000000
T227895952A,0.858861,-1.166926,0.000000,0.000000,0.000000,0.000000
T21148701B,0.000000,0.000000,-0.881099,-0.131191,0.000000,0.000000
T5138294B,0.000000,0.000000,-0.851315,-0.110922,0.000000,0.000000
T22112168866C,0.000000,0.000000,0.000000,0.000000,0.879086,2.086881
T226192185A,0.827387,-1.087629,0.000000,0.000000,0.000000,0.000000
T21458756C,0.000000,0.000000,0.000000,0.000000,1.878923,4.284958
T5260624C,0.000000,0.000000,0.000000,0.000000,0.283783,0.846441
T5251867C,0.000000,0.000000,0.000000,0.000000,0.442397,1.435143
T228580047B,0.000000,0.000000,-0.908945,0.000056,0.000000,0.000000
T5138684A,0.808131,-1.061381,0.000000,0.000000,0.000000,0.000000
T5138570A,0.483523,-0.622233,0.000000,0.000000,0.000000,0.000000
T21399361B,0.000000,0.000000,-1.497331,-0.157143,0.000000,0.000000
T226193134C,0.000000,0.000000,0.000000,0.000000,0.583644,1.384467
T5138258C,0.000000,0.000000,0.000000,0.000000,0.335953,0.838475
T5293609C,0.000000,0.000000,0.000000,0.000000,0.556712,1.444715
T5355938A,0.433984,-0.671879,0.000000,0.000000,0.000000,0.000000
T5247160B,0.000000,0.000000,-0.886428,-0.094775,0.000000,0.000000
T5338975A,0.457260,-0.679638,0.000000,0.000000,0.000000,0.000000
T5302860C,0.000000,0.000000,0.000000,0.000000,0.855984,2.124027
T5355598B,0.000000,0.000000,-1.486654,0.000092,0.000000,0.000000
T5323254B,0.000000,0.000000,-1.502195,-0.008086,0.000000,0.000000
T21391242B,0.000000,0.000000,-1.461454,-0.229222,0.000000,0.000000
T225533162A,0.431666,-0.655693,0.000000,0.000000,0.000000,0.000000
T5138585C,0.000000,0.000000,0.000000,0.000000,0.225718,0.559387
T5138751B,0.000000,0.000000,-1.465773,-0.161205,0.000000,0.000000
T225906836C,0.000000,0.000000,0.000000,0.000000,0.442268,1.434992
T5260527B,0.000000,0.000000,-1.458339,-0.230698,0.000000,0.000000
T5338947B,0.000000,0.000000,-1.452728,-0.024798,0.000000,0.000000
T5321839A,0.731778,-1.148383,0.000000,0.000000,0.000000,0.000000
T5293591A,0.438630,-0.671346,0.000000,0.000000,0.000000,0.000000
T5302805C,0.000000,0.000000,0.000000,0.000000,0.340885,0.844334
T5338993B,0.000000,0.000000,-0.877089,-0.032145,0.000000,0.000000
T5138566A,0.806259,-1.042802,0.000000,0.000000,0.000000,0.000000
T5356797C,0.000000,0.000000,0.000000,0.000000,0.538864,1.393493
T5338924C,0.000000,0.000000,0.000000,0.000000,0.349967,0.829460
T5293655A,0.736249,-1.138818,0.000000,0.000000,0.000000,0.000000
T5293655B,0.000000,0.000000,-1.453589,-0.026903,0.000000,0.000000
T5293655C,0.000000,0.000000,0.000000,0.000000,0.593562,1.416657
T5260643A,1.744224,-2.095853,0.000000,0.000000,0.000000,0.000000
T5338987A,0.303161,-0.449015,0.000000,0.000000,0.000000,0.000000
T5302807C,0.000000,0.000000,0.000000,0.000000,0.568702,1.410397
T227917122A,1.101571,-1.682367,0.000000,0.000000,0.000000,0.000000
T28127372A,0.826236,-1.083782,0.000000,0.000000,0.000000,0.000000
T226192493B,0.000000,0.000000,-0.880264,-0.001988,0.000000,0.000000
T5337635C,0.000000,0.000000,0.000000,0.000000,0.221934,0.575544
T5218475A,0.351586,-0.379928,0.000000,0.000000,0.000000,0.000000
T227760024A,1.745274,-2.279587,0.000000,0.000000,0.000000,0.000000
T227760024B,0.000000,0.000000,-3.030654,-0.330708,0.000000,0.000000
T227760024C,0.000000,0.000000,0.000000,0.000000,1.059070,2.831612
T21399305A,0.738153,-1.145373,0.000000,0.000000,0.000000,0.000000
T5260517C,0.000000,0.000000,0.000000,0.000000,0.303327,0.844590
T21397121C,0.000000,0.000000,0.000000,0.000000,0.350918,0.831157
T21399099A,0.436746,-0.665899,0.000000,0.000000,0.000000,0.000000
T5302375B,0.000000,0.000000,-0.901649,-0.092991,0.000000,0.000000
T5338953B,0.000000,0.000000,-1.461981,-0.021151,0.000000,0.000000
T5260574C,0.000000,0.000000,0.000000,0.000000,0.519810,1.407379
T5391992A,0.732590,-1.148502,0.000000,0.000000,0.000000,0.000000
T5323264B,0.000000,0.000000,-3.016334,-0.019670,0.000000,0.000000
T5338962C,0.000000,0.000000,0.000000,0.000000,0.604626,1.406409
T5138755B,0.000000,0.000000,-0.587077,-0.063518,0.000000,0.000000
T5338956A,0.728615,-1.116365,0.000000,0.000000,0.000000,0.000000
T5310568A,0.444313,-0.686769,0.000000,0.000000,0.000000,0.000000
T5337647A,0.729885,-1.117397,0.000000,0.000000,0.000000,0.000000
T28120195B,0.000000,0.000000,-1.518232,-0.000279,0.000000,0.000000
T5293521A,0.325217,-0.428161,0.000000,0.000000,0.000000,0.000000
T5293521B,0.000000,0.000000,-0.589761,-0.063098,0.000000,0.000000
T5293521C,0.000000,0.000000,0.000000,0.000000,0.231266,0.559365
T5302677A,0.817009,-1.075191,0.000000,0.000000,0.000000,0.000000
T5355778C,0.000000,0.000000,0.000000,0.000000,0.236000,0.556114
T5302369B,0.000000,0.000000,-1.511153,-0.154962,0.000000,0.000000
T227917130C,0.000000,0.000000,0.000000,0.000000,0.932855,2.121577
T5339007B,0.000000,0.000000,-1.473474,-0.052113,0.000000,0.000000
T2224490448C,0.000000,0.000000,0.000000,0.000000,0.609355,1.405754
T5337710B,0.000000,0.000000,-1.517799,-0.000469,0.000000,0.000000
T22112168870C,0.000000,0.000000,0.000000,0.000000,1.175236,2.790844
T21396796B,0.000000,0.000000,-1.507056,-0.006829,0.000000,0.000000
T5321852C,0.000000,0.000000,0.000000,0.000000,0.238312,0.559760
T226193899B,0.000000,0.000000,-1.470314,-0.052818,0.000000,0.000000
T5323244B,0.000000,0.000000,-0.602084,-0.002009,0.000000,0.000000
T5355937A,0.723073,-1.125508,0.000000,0.000000,0.000000,0.000000
T21395962A,0.810828,-1.066592,0.000000,0.000000,0.000000,0.000000
T5223661C,0.000000,0.000000,0.000000,0.000000,0.259646,0.850807
T5337643C,0.000000,0.000000,0.000000,0.000000,0.333255,0.864182
T5302810C,0.000000,0.000000,0.000000,0.000000,0.340123,0.843305
T5391976C,0.000000,0.000000,0.000000,0.000000,0.596725,1.423556
T5356796C,0.000000,0.000000,0.000000,0.000000,0.539021,1.393716
T5260502B,0.000000,0.000000,-0.583952,-0.089614,0.000000,0.000000
T225991691A,0.442526,-0.696181,0.000000,0.000000,0.000000,0.000000
T2224061203C,0.000000,0.000000,0.000000,0.000000,0.509214,1.409964
T5138413C,0.000000,0.000000,0.000000,0.000000,0.337680,0.839972
T5323287B,0.000000,0.000000,-0.884128,-0.030562,0.000000,0.000000
T5321847B,0.000000,0.000000,-0.905014,-0.003156,0.000000,0.000000
T5337687B,0.000000,0.000000,-0.895358,-0.004057,0.000000,0.000000
T5302474A,0.827398,-1.087655,0.000000,0.000000,0.000000,0.000000
T21357865A,0.725691,-1.108405,0.000000,0.000000,0.000000,0.000000
T5355597B,0.000000,0.000000,-0.889760,0.000184,0.000000,0.000000
T229106135C,0.000000,0.000000,0.000000,0.000000,0.220136,0.573044
T226264795A,0.878262,-0.979572,0.000000,0.000000,0.000000,0.000000
T5337729A,0.345457,-0.452348,0.000000,0.000000,0.000000,0.000000
T5337729B,0.000000,0.000000,-1.507224,-0.163265,0.000000,0.000000
T5337729C,0.000000,0.000000,0.000000,0.000000,0.210654,0.561245
T5293608C,0.000000,0.000000,0.000000,0.000000,0.556551,1.444477
T5355936A,1.088493,-1.694434,0.000000,0.000000,0.000000,0.000000
T28149184C,0.000000,0.000000,0.000000,0.000000,0.609379,1.405776
T226193338A,0.441724,-0.665082,0.000000,0.000000,0.000000,0.000000
T5391979C,0.000000,0.000000,0.000000,0.000000,0.357224,0.851557
T5251862C,0.000000,0.000000,0.000000,0.000000,0.268315,0.864019
T5355591B,0.000000,0.000000,-1.483190,-0.000912,0.000000,0.000000
T2224387062A,1.094148,-1.679441,0.000000,0.000000,0.000000,0.000000
T226193361B,0.000000,0.000000,-0.901506,-0.004071,0.000000,0.000000
T5323267B,0.000000,0.000000,-1.502326,-0.008055,0.000000,0.000000
T226924200B,0.000000,0.000000,-1.517742,-0.153962,0.000000,0.000000
T5302676A,0.325770,-0.429083,0.000000,0.000000,0.000000,0.000000
T2224386874A,0.436613,-0.666856,0.000000,0.000000,0.000000,0.000000
T5356009A,0.434801,-0.674339,0.000000,0.000000,0.000000,0.000000
T5138641C,0.000000,0.000000,0.000000,0.000000,0.345547,0.837275
T5337714C,0.000000,0.000000,0.000000,0.000000,0.903419,2.112536
T21380453A,0.460924,-0.642418,0.000000,0.000000,0.000000,0.000000
T226191778C,0.000000,0.000000,0.000000,0.000000,0.589385,1.393706
T226029836A,0.441897,-0.693388,0.000000,0.000000,0.000000,0.000000
T2224237718A,0.433421,-0.667758,0.000000,0.000000,0.000000,0.000000
T226194093A,0.461571,-0.637400,0.000000,0.000000,0.000000,0.000000
T5302673A,1.228650,-1.615601,0.000000,0.000000,0.000000,0.000000
T5293522A,0.489274,-0.640398,0.000000,0.000000,0.000000,0.000000
T227917133C,0.000000,0.000000,0.000000,0.000000,0.620433,1.409504
T2224238167A,1.085817,-1.679856,0.000000,0.000000,0.000000,0.000000
T5293592A,1.099037,-1.689746,0.000000,0.000000,0.000000,0.000000
T225918926B,0.000000,0.000000,-0.897565,-0.126257,0.000000,0.000000
T5138717C,0.000000,0.000000,0.000000,0.000000,0.578950,1.400253
T5356007A,0.434826,-0.674413,0.000000,0.000000,0.000000,0.000000
T5356008A,0.434828,-0.674419,0.000000,0.000000,0.000000,0.000000
T226193696A,0.732663,-1.119133,0.000000,0.000000,0.000000,0.000000
T5337689B,0.000000,0.000000,-1.498531,-0.006373,0.000000,0.000000
T5337624C,0.000000,0.000000,0.000000,0.000000,0.220154,0.573068
T5321880A,0.442293,-0.694674,0.000000,0.000000,0.000000,0.000000
T5392038B,0.000000,0.000000,-2.283435,-0.001333,0.000000,0.000000
T5337712C,0.000000,0.000000,0.000000,0.000000,0.359778,0.839776
T21399508A,0.496042,-0.646912,0.000000,0.000000,0.000000,0.000000
T5294809A,0.435084,-0.676781,0.000000,0.000000,0.000000,0.000000
T5274994C,0.000000,0.000000,0.000000,0.000000,0.546181,1.429933
T5260461B,0.000000,0.000000,-1.407444,-0.290514,0.000000,0.000000
T5223655C,0.000000,0.000000,0.000000,0.000000,0.262601,0.847011
T5138465C,0.000000,0.000000,0.000000,0.000000,0.225685,0.560523
T5323387B,0.000000,0.000000,-1.518301,-0.003978,0.000000,0.000000
T5338918A,0.290238,-0.442973,0.000000,0.000000,0.000000,0.000000
T5260561C,0.000000,0.000000,0.000000,0.000000,0.509361,1.410119
T226192846B,0.000000,0.000000,-1.515192,-0.001612,0.000000,0.000000
T2224386750A,0.727273,-1.116244,0.000000,0.000000,0.000000,0.000000
T5260576C,0.000000,0.000000,0.000000,0.000000,0.522048,1.406924
T5391756B,0.000000,0.000000,-0.907524,-0.092104,0.000000,0.000000
T5391994A,0.732497,-1.148215,0.000000,0.000000,0.000000,0.000000
T5337715A,0.437096,-0.666638,0.000000,0.000000,0.000000,0.000000
T28150172A,0.825793,-1.083874,0.000000,0.000000,0.000000,0.000000
T5294844A,0.439631,-0.685206,0.000000,0.000000,0.000000,0.000000
T5337699B,0.000000,0.000000,-1.510917,-0.003241,0.000000,0.000000
T226194002B,0.000000,0.000000,-2.213311,-0.079721,0.000000,0.000000
T5321851B,0.000000,0.000000,-0.881647,-0.001908,0.000000,0.000000
T5260555A,1.303116,-1.588629,0.000000,0.000000,0.000000,0.000000
T226101460A,0.434903,-0.675973,0.000000,0.000000,0.000000,0.000000
T28128517C,0.000000,0.000000,0.000000,0.000000,0.448875,1.445085
T5260567C,0.000000,0.000000,0.000000,0.000000,0.309860,0.842601
T5338981B,0.000000,0.000000,-1.455987,-0.057611,0.000000,0.000000
T225533215C,0.000000,0.000000,0.000000,0.000000,0.217545,0.554312
T5391743B,0.000000,0.000000,-1.529606,-0.152125,0.000000,0.000000
T5391996A,0.439778,-0.685686,0.000000,0.000000,0.000000,0.000000
T28118822A,0.495835,-0.647867,0.000000,0.000000,0.000000,0.000000
T5260558C,0.000000,0.000000,0.000000,0.000000,0.203062,0.562255
T5355842A,0.723820,-1.129727,0.000000,0.000000,0.000000,0.000000
T5338943C,0.000000,0.000000,0.000000,0.000000,0.589766,1.403060
T5293492C,0.000000,0.000000,0.000000,0.000000,0.580719,1.405653
T5355779C,0.000000,0.000000,0.000000,0.000000,0.353989,0.834482
T5260457B,0.000000,0.000000,-0.560747,-0.115536,0.000000,0.000000
T21393454B,0.000000,0.000000,-2.138065,-0.279626,0.000000,0.000000
T5321848B,0.000000,0.000000,-0.905025,-0.003151,0.000000,0.000000
T5338960C,0.000000,0.000000,0.000000,0.000000,0.604410,1.406126
T5356065B,0.000000,0.000000,-0.880370,-0.001977,0.000000,0.000000
T5138646A,0.321789,-0.420030,0.000000,0.000000,0.000000,0.000000
T5337654C,0.000000,0.000000,0.000000,0.000000,0.361227,0.840139
T5337691B,0.000000,0.000000,-0.897543,-0.003499,0.000000,0.000000
T5391738B,0.000000,0.000000,-0.609980,-0.060197,0.000000,0.000000
T5247171B,0.000000,0.000000,-0.886800,-0.094655,0.000000,0.000000
T226192175C,0.000000,0.000000,0.000000,0.000000,0.346176,0.839560
T5328367C,0.000000,0.000000,0.000000,0.000000,0.213852,0.559540
T5247084B,0.000000,0.000000,-1.474928,-0.159863,0.000000,0.000000
T5247100B,0.000000,0.000000,-0.883855,-0.095388,0.000000,0.000000
T226101449A,0.724423,-1.131902,0.000000,0.000000,0.000000,0.000000
T5321838A,0.731815,-1.148494,0.000000,0.000000,0.000000,0.000000
T226194262C,0.000000,0.000000,0.000000,0.000000,0.605106,1.406843
T22112168887C,0.000000,0.000000,0.000000,0.000000,0.879499,2.087157
T5355773A,0.725629,-1.135632,0.000000,0.000000,0.000000,0.000000
T226192926A,0.727204,-1.115091,0.000000,0.000000,0.000000,0.000000
T5337718A,0.295854,-0.461462,0.000000,0.000000,0.000000,0.000000
T5251859C,0.000000,0.000000,0.000000,0.000000,0.449674,1.446052
T5260622C,0.000000,0.000000,0.000000,0.000000,0.283786,0.846447
T21467859B,0.000000,0.000000,-2.218675,-0.241017,0.000000,0.000000
T226193298A,0.760444,-1.125372,0.000000,0.000000,0.000000,0.000000
T21399809A,0.434649,-0.674997,0.000000,0.000000,0.000000,0.000000
T5294812A,0.435103,-0.676840,0.000000,0.000000,0.000000,0.000000
T226308723B,0.000000,0.000000,-2.266936,-0.244416,0.000000,0.000000
T5338945A,0.719124,-1.097767,0.000000,0.000000,0.000000,0.000000
T5321837A,0.731839,-1.148570,0.000000,0.000000,0.000000,0.000000
T5441311A,0.727076,-1.138679,0.000000,0.000000,0.000000,0.000000
T5338934B,0.000000,0.000000,-0.867246,-0.010713,0.000000,0.000000
T5157716B,0.000000,0.000000,-1.407671,-0.290486,0.000000,0.000000
T5338930B,0.000000,0.000000,-0.575708,-0.008218,0.000000,0.000000
T5337717A,0.445555,-0.690502,0.000000,0.000000,0.000000,0.000000
T21400215B,0.000000,0.000000,-2.977622,-0.320871,0.000000,0.000000
T227921416A,0.732813,-1.149121,0.000000,0.000000,0.000000,0.000000
T5323399B,0.000000,0.000000,-0.907489,-0.002529,0.000000,0.000000
T5321882C,0.000000,0.000000,0.000000,0.000000,0.599495,1.407780
T5339021A,0.764845,-1.109544,0.000000,0.000000,0.000000,0.000000
T5355589B,0.000000,0.000000,-1.483091,-0.000937,0.000000,0.000000
T225668688A,0.442413,-0.695452,0.000000,0.000000,0.000000,0.000000
T5302803C,0.000000,0.000000,0.000000,0.000000,0.569383,1.411314
T5355596B,0.000000,0.000000,-0.889743,0.000180,0.000000,0.000000
T21400108B,0.000000,0.000000,-0.890465,0.000371,0.000000,0.000000
T21380500C,0.000000,0.000000,0.000000,0.000000,0.554474,1.386006
...